[General]
ned-path = .;../src
sim-time-limit = 60s
simtime-scale = -9
**.module-eventlog-recording = false
**.scalar-recording = false
**.vector-recording = false
debug-on-errors = false

[Config WRS_K3]
network = WRS_K3
description = "WRS, K=3, HPmin"
**.startTime = 0s 			# start time of the simulation
**.serviceTime = 16ns 		# WRS cycle, 125 MHz operated with 16 bits = 62,5MHz
#125 MHz = 125000000 Hz, 0,000000008
**.interArrivalTime = 8us	# time between jobs was: 5us
**.ifg = 0.0096us			# interframe gap

**.numPackets = 10000#00	# total numbers of packets created
**.nofCoS = 3				# number of priority classes

**.capacity = 16			# queue capacity
**.fifo = true				# queue acts as FIFO

# WFQ weights
**.scheduler.weight7 = 10
**.scheduler.weight6 = 6
**.scheduler.weight5 = 5
**.scheduler.weight4 = 4
**.scheduler.weight3 = 3
**.scheduler.weight2 = 2
**.scheduler.weight1 = 1
**.scheduler.weight0 = 1

#WRR weights
**.scheduler.wrr_weight7 = 10
**.scheduler.wrr_weight6 = 6
**.scheduler.wrr_weight5 = 5
**.scheduler.wrr_weight4 = 4
**.scheduler.wrr_weight3 = 3
#N=3
**.scheduler.wrr_weight2 = 5
**.scheduler.wrr_weight1 = 3
**.scheduler.wrr_weight0 = 2

# Scheduling algorithm
#**.scheduler.routingAlgorithm = "FQSW"
#**.inputDataFile = "K3HP25minSPvar"

# for batch simulation
**.scheduler.routingAlgorithm = ${ "FCFS", "RR" , "WRR", "SQF", "LQF", "WFQ", "FQSW" }
**.inputDataFile = ${"K3HP75minSPmin", "K3HP75minSPmax", "K3HP75minSPvar", "K3HP25minSPmin", "K3HP25minSPmax", "K3HP25minSPvar"}
